
#======================================================================
# CRYSTAL DATA
#----------------------------------------------------------------------
data_VESTA_phase_1

_chemical_name_common                  'Neodymium niccolate(III) - LT'
_cell_length_a                         5.37783(5)
_cell_length_b                         5.38846(4)
_cell_length_c                         7.60511(6)
_cell_angle_alpha                      90.000000
_cell_angle_beta                       90.0610(10)
_cell_angle_gamma                      90.000000
_cell_volume                           220.382452
_space_group_name_H-M_alt              'P 21/n'
_space_group_IT_number                 14

loop_
_space_group_symop_operation_xyz
   'x, y, z'
   '-x, -y, -z'
   '-x+1/2, y+1/2, -z+1/2'
   'x+1/2, -y+1/2, z+1/2'

loop_
   _atom_site_label
   _atom_site_occupancy
   _atom_site_fract_x
   _atom_site_fract_y
   _atom_site_fract_z
   _atom_site_adp_type
   _atom_site_B_iso_or_equiv
   _atom_site_type_symbol
   Nd1         1.0     0.993210(10)  0.03910(7)   0.2495(4)   Biso  0.520000 Nd
   Ni1         1.0     0.500000     0.000000     0.000000    Biso  0.550000 Ni
   Ni2         1.0     0.500000     0.000000     0.500000    Biso  0.280000 Ni
   O1          1.0     0.0752(17)   0.4866(9)    0.252(3)    Biso  0.540000 O
   O2          1.0     0.714(3)     0.276(3)     0.0267(16)  Biso  0.550000 O
   O3          1.0     0.219(3)     0.204(3)     0.9470(17)  Biso  0.570000 O
