
#======================================================================
# CRYSTAL DATA
#----------------------------------------------------------------------
data_VESTA_phase_1

_chemical_name_common                  'Yttrium niccolate(III)'
_cell_length_a                         5.17932(5)
_cell_length_b                         5.51529(5)
_cell_length_c                         7.41656(7)
_cell_angle_alpha                      90.000000
_cell_angle_beta                       90.0810(10)
_cell_angle_gamma                      90.000000
_cell_volume                           211.857166
_space_group_name_H-M_alt              'P 21/n'
_space_group_IT_number                 14

loop_
_space_group_symop_operation_xyz
   'x, y, z'
   '-x, -y, -z'
   '-x+1/2, y+1/2, -z+1/2'
   'x+1/2, -y+1/2, z+1/2'

loop_
   _atom_site_label
   _atom_site_occupancy
   _atom_site_fract_x
   _atom_site_fract_y
   _atom_site_fract_z
   _atom_site_adp_type
   _atom_site_U_iso_or_equiv
   _atom_site_type_symbol
   Y1          1.0     0.9816(2)    0.07290(10)  0.2502(4)   Uiso  0.005200 Y
   Ni1         1.0     0.500000     0.000000     0.000000    Uiso  0.005500 Ni
   Ni2         1.0     0.500000     0.000000     0.500000    Uiso  0.002800 Ni
   O1          1.0     0.0998(4)    0.4705(4)    0.2457(5)   Uiso  0.005400 O
   O2          1.0     0.6973(7)    0.3080(7)    0.0467(5)   Uiso  0.005500 O
   O3          1.0     0.1882(7)    0.2038(7)    0.9465(5)   Uiso  0.005700 O
