
#======================================================================
# CRYSTAL DATA
#----------------------------------------------------------------------
data_VESTA_phase_1

_chemical_name_common                  'Yttrium niccolate'
_cell_length_a                         5.20051(7)
_cell_length_b                         5.53419(8)
_cell_length_c                         7.42640(10)
_cell_angle_alpha                      90.000000
_cell_angle_beta                       90.000000
_cell_angle_gamma                      90.000000
_cell_volume                           213.736339
_space_group_name_H-M_alt              'P b n m'
_space_group_IT_number                 62

loop_
_space_group_symop_operation_xyz
   'x, y, z'
   '-x, -y, -z'
   'x+1/2, -y+1/2, -z'
   '-x+1/2, y+1/2, z'
   '-x, -y, z+1/2'
   'x, y, -z+1/2'
   '-x+1/2, y+1/2, -z+1/2'
   'x+1/2, -y+1/2, z+1/2'

loop_
   _atom_site_label
   _atom_site_occupancy
   _atom_site_fract_x
   _atom_site_fract_y
   _atom_site_fract_z
   _atom_site_adp_type
   _atom_site_B_iso_or_equiv
   _atom_site_type_symbol
   Y1          1.0     0.9818(5)    0.0711(4)    0.250000    Biso  0.790000 Y
   Ni1         1.0     0.500000     0.000000     0.000000    Biso  0.730000 Ni
   O1          1.0     0.0985(5)    0.4701(5)    0.250000    Biso  0.820000 O
   O2          1.0     0.6931(4)    0.3037(4)    0.0496(4)   Biso  1.040000 O
